24
Properties=species:S:1:pos:R:3:forces:R:3 energy=-18391.25685921428 pbc="F F F"
O        0.37847164       2.55789992       0.00009515       0.00034931       0.00562465       0.00001108
O       -3.03513883      -0.40770359       0.00042292      -0.00680095      -0.00248162      -0.00006506
N       -0.96032958      -1.27743151       0.00005904       0.00350332       0.00159054      -0.00006373
N        2.24302763       0.12892825       0.00007794       0.00004355      -0.00228488      -0.00008474
N       -1.33818565       1.06194726       0.00007057      -0.00296346       0.00134064      -0.00008982
N        1.37724769      -1.90940010       0.00011891      -0.00340044      -0.00214798      -0.00005637
C        0.86597230       0.26387993      -0.00003070      -0.00055063      -0.00030975       0.00003182
C        0.38109432      -1.00632947       0.00001497      -0.00067307      -0.00040180       0.00011951
C        0.01065637       1.41671247       0.00003323       0.00672711      -0.00528321       0.00010678
C       -1.85216748      -0.23251919       0.00017687       0.00308945       0.00480062       0.00049041
C        2.46708997      -1.18224337       0.00015777      -0.00249907      -0.00308170       0.00011218
C       -1.42723529      -2.65702178       0.00059960       0.00333935       0.00428434      -0.00005294
C        3.22888711       1.19170410       0.00030370       0.00628620      -0.00107274      -0.00001200
C       -2.33951631       2.12867586       0.00052687      -0.00761755       0.00395754      -0.00007478
H        3.46626222      -1.58725822       0.00027551      -0.00511314      -0.00267845      -0.00008283
H       -1.05802311      -3.17323976      -0.88219026       0.00531788       0.00018683      -0.00416475
H       -2.50787542      -2.64981953       0.00073082      -0.00470738      -0.00472366      -0.00005313
H       -1.05781021      -3.17258079       0.88368883       0.00525714       0.00001194       0.00411863
H        4.21836050       0.74346783       0.00016294       0.00010974       0.00505575      -0.00001486
H        3.11102247       1.81476372      -0.88130601       0.00135177      -0.00064833      -0.00399342
H        3.11108390       1.81432569       0.88223662       0.00137212      -0.00058546       0.00393297
H       -1.81976806       3.07587719      -0.00047230       0.00015840      -0.00103674      -0.00001934
H       -2.96806742       2.04701303       0.88249180      -0.00142697      -0.00003977      -0.00755689
H       -2.96985875       2.04605208      -0.88004479      -0.00115268      -0.00007678       0.00746126
