9
Properties=species:S:1:pos:R:3:forces:R:3 energy=-4189.983134437085 pbc="F F F"
O       -1.19492807       0.27413805       0.00871406       0.00266279       0.00185032       0.00386008
C       -0.04975698      -0.53196371       0.01601303      -0.00150287       0.00107194       0.00249911
C        1.23884065       0.27222123      -0.00094744      -0.00034847      -0.00061775      -0.00332452
H       -0.06330267      -1.20480789       0.87888154      -0.00192555      -0.00123587       0.00196862
H       -0.11637411      -1.15407160      -0.87489148       0.00106984       0.00275051      -0.00104437
H        2.10370693      -0.39340659      -0.02771911      -0.00028584       0.00070846       0.00489250
H        1.27500656       0.92246306      -0.87513862      -0.00068178       0.00278551      -0.00221014
H        1.32562997       0.89607946       0.89223211       0.00203563      -0.00304032      -0.00304841
H       -1.22972228       0.81384800       0.78055591      -0.00102375      -0.00427281      -0.00359287
