9
Properties=species:S:1:pos:R:3:forces:R:3 energy=-4218.6992262669055 pbc="F F F"
O       -1.21866375       0.27902837      -0.01126949       0.00273387       0.00575176       0.00708609
C       -0.05308285      -0.53843749       0.01658269       0.00007982      -0.00029313      -0.00047965
C        1.24033977       0.27190634       0.00015456      -0.00050240      -0.00225415      -0.00301089
H       -0.06540470      -1.21578628       0.88633929      -0.00089509      -0.00290326       0.00188780
H       -0.11950366      -1.16489389      -0.87910656       0.00090520       0.00255719       0.00161381
H        2.11666507      -0.38698731      -0.02838574      -0.00167294       0.00208197      -0.00176202
H        1.26916103       0.92954182      -0.87491977       0.00008692      -0.00111799      -0.00028410
H        1.32507796       0.89724630       0.89871137      -0.00009802       0.00105210       0.00288559
H       -1.20836214       0.82542301       0.79027078      -0.00160190      -0.00393307      -0.00795074
