3
Properties=species:S:1:pos:R:3:forces:R:3 energy=-2067.3763052580393 pbc="F F F"
O        2.53692693      -0.32448001       0.00000000       0.00037010      -0.00188861      -0.00000000
H        3.29297735       0.23973336      -0.00000000       0.00023608       0.00080619       0.00000000
H        1.78089572       0.23974666      -0.00000000      -0.00060618       0.00108242      -0.00000000
