3
Properties=species:S:1:pos:R:3:forces:R:3 energy=-2080.5785031368773 pbc="F F F"
O        2.53690888      -0.34072954       0.00000000       0.00346641       0.00474413       0.00000000
H        3.29702983       0.24793463       0.00000000       0.00004343      -0.00355994      -0.00000000
H        1.77686228       0.24789366      -0.00000000      -0.00350905      -0.00087620       0.00000000
